51
Lattice="7.084087802956708 0.0 0.0 0.0 11.568266940211917 0.0 0.0 0.0 28.0" Properties=species:S:1:pos:R:3:initial_magmoms:R:1:forces:R:3:magmoms:R:1 adsorbate_info="_JSON {\"sites\": {}}" energy=-130.26706459585156 dipole="-43.35736900259647 -16.193808828170443 10.037885408439633" magmom=0.0 pbc="T T F"
Ag       4.80338728       1.44281072      16.44085692       0.00000000       0.01294544       0.01739422       0.00571157       0.00000000
Ag       4.78608585       4.33987211      16.71305034       0.00000000      -0.00506436       0.00123567      -0.01185390       0.00000000
Ag       4.80678992       7.24682867      16.44158681       0.00000000       0.00844505      -0.01686057       0.00082750       0.00000000
Ag       2.42730860       0.01393569      15.62244555       0.00000000       0.01470656      -0.00068838      -0.00403022       0.00000000
Ag       2.45325802       2.90720179      15.59165971       0.00000000       0.00430158      -0.00237859       0.01017140       0.00000000
Ag       2.45515299       5.78744066      15.59631988       0.00000000       0.00111229       0.00295160       0.00699537       0.00000000
Ag       0.09473660       1.46218449      14.77834700       0.00000000       0.00819870       0.00131505      -0.00140950       0.00000000
Ag       0.06952912       4.35226251      14.82864249       0.00000000       0.00542651       0.00781671       0.01327486       0.00000000
Ag       0.09606306       7.23480732      14.77846112       0.00000000       0.00550970       0.01035343      -0.00373544       0.00000000
Ag       4.81928387       0.01977619      13.85106312       0.00000000      -0.00261123       0.00087297       0.01333929       0.00000000
Ag       4.81207961       2.92127273      13.88355230       0.00000000       0.00789314       0.00104235      -0.00431338       0.00000000
Ag       4.80903203       5.76968120      13.88919421       0.00000000       0.00505260       0.00609197      -0.01125335       0.00000000
Ag       2.41819509       1.45733748      12.96305755       0.00000000       0.00301621       0.00560772       0.00170144       0.00000000
Ag       2.40621830       4.35031183      12.97197634       0.00000000       0.00204976       0.00306771       0.00625066       0.00000000
Ag       2.41891425       7.23999389      12.96422944       0.00000000       0.00143474       0.00347382       0.00047788       0.00000000
Ag       0.02764420       0.00350385      12.10090712       0.00000000      -0.00512494       0.00199547      -0.00367463       0.00000000
Ag       0.01838575       2.89674940      12.10436932       0.00000000       0.00233784       0.00115200      -0.00096521       0.00000000
Ag       0.01665259       5.78821899      12.10518514       0.00000000       0.00315528       0.00045133      -0.00183579       0.00000000
Ag       4.72272520       1.44603337      11.17433877       0.00000000       0.09473463       0.00399243       0.45929053       0.00000000
Ag       4.72272520       4.33810010      11.17433877       0.00000000       0.07118514       0.00479898       0.45664053       0.00000000
Ag       4.72272520       7.23016684      11.17433877       0.00000000       0.09250027       0.00175266       0.46451448       0.00000000
Ag       2.36136260       0.00000000      10.33947102       0.00000000       0.03326403      -0.00154143       0.29238892       0.00000000
Ag       2.36136260       2.89206674      10.33947102       0.00000000       0.02226685       0.01481160       0.32069693       0.00000000
Ag       2.36136260       5.78413347      10.33947102       0.00000000       0.02050093      -0.00722158       0.32196439       0.00000000
Ag      -0.00000000       1.44603337       9.50460326       0.00000000      -0.10849845       0.00393207       0.06088044       0.00000000
Ag      -0.00000000       4.33810010       9.50460326       0.00000000      -0.11448637       0.00237973       0.07438792       0.00000000
Ag      -0.00000000       7.23016684       9.50460326       0.00000000      -0.10856796      -0.00092910       0.06128973       0.00000000
Ag       4.72272520       0.00000000       8.66973551       0.00000000      -0.11747658      -0.01789283      -0.38567170       0.00000000
Ag       4.72272520       2.89206674       8.66973551       0.00000000      -0.11195662      -0.00233911      -0.38076600       0.00000000
Ag       4.72272520       5.78413347       8.66973551       0.00000000      -0.11175337       0.00281468      -0.38066342       0.00000000
Ag       2.36136260       1.44603337       7.83486775       0.00000000       0.05715614      -0.00086504      -0.33797696       0.00000000
Ag       2.36136260       4.33810010       7.83486775       0.00000000       0.05544975      -0.00031219      -0.34283607       0.00000000
Ag       2.36136260       7.23016684       7.83486775       0.00000000       0.05781890       0.00078461      -0.33744059       0.00000000
Ag       0.00000000       0.00000000       7.00000000       0.00000000      -0.04312673       0.01062827      -0.11773023       0.00000000
Ag       0.00000000       2.89206674       7.00000000       0.00000000      -0.01794887      -0.00324516      -0.13278372       0.00000000
Ag       0.00000000       5.78413347       7.00000000       0.00000000      -0.01799764       0.00286914      -0.13289223       0.00000000
C        4.82098016       4.25946714      19.00331138       0.00000000       0.00849632       0.00255123      -0.03634793       0.00000000
O        5.98871721       4.24050297      19.45843159       0.00000000      -0.01767362      -0.00125901       0.00697142       0.00000000
O        3.70219566       4.24862029      19.56614708       0.00000000       0.04270184       0.00304974      -0.02578803       0.00000000
Ag       4.79006633      10.13021652      16.43625038       0.00000000       0.01974322      -0.00110220      -0.00846449       0.00000000
Ag       2.42722447       8.68369652      15.62660842       0.00000000       0.01025687       0.00624602      -0.00571787       0.00000000
Ag       0.09238694      10.13227437      14.78613877       0.00000000       0.00778679       0.00575742      -0.00429642       0.00000000
Ag       4.81891779       8.67321751      13.85204946       0.00000000      -0.00513064       0.00585435       0.01236725       0.00000000
Ag       2.42088649      10.13191425      12.97297501       0.00000000      -0.00521625       0.00594698      -0.00454639       0.00000000
Ag       0.02730209       8.68014027      12.10134380       0.00000000      -0.00484921       0.00089314      -0.00405998       0.00000000
Ag       4.72272520      10.12223357      11.17433877       0.00000000       0.08945746       0.00389759       0.48899209       0.00000000
Ag       2.36136260       8.67620021      10.33947102       0.00000000       0.03271518       0.00838040       0.29108203       0.00000000
Ag      -0.00000000      10.12223357       9.50460326       0.00000000      -0.11131642       0.00077633       0.06246115       0.00000000
Ag       4.72272520       8.67620021       8.66973551       0.00000000      -0.11791791       0.01746429      -0.38500636       0.00000000
Ag       2.36136260      10.12223357       7.83486775       0.00000000       0.09238397       0.00010463      -0.34848305       0.00000000
Ag       0.00000000       8.67620021       7.00000000       0.00000000      -0.04424958      -0.01025353      -0.11717262       0.00000000
