66
Lattice="7.084087802956708 0.0 0.0 0.0 14.460333675264895 0.0 0.0 0.0 28.0" Properties=species:S:1:pos:R:3:initial_magmoms:R:1:forces:R:3:magmoms:R:1 adsorbate_info="_JSON {\"sites\": {}}" energy=-163.57819859879464 dipole="-54.577706562091215 -9.887789766405136 8.338289126986954" magmom=0.0 pbc="T T F"
Ag       4.80366433       1.37806198      16.38498926       0.00000000      -0.00797079      -0.00636253       0.00751986       0.00000000
Ag       4.80337870       4.27381906      16.37197305       0.00000000      -0.00012658      -0.00837818       0.01670159       0.00000000
Ag       4.79250681       7.17066105      16.42887879       0.00000000       0.00411627      -0.03070716      -0.01591637       0.00000000
Ag       2.42859247      -0.04688911      15.62193523       0.00000000      -0.00224255      -0.01191367      -0.00457422       0.00000000
Ag       2.43075413       2.84365740      15.61320858       0.00000000       0.00485813      -0.00622516       0.00801434       0.00000000
Ag       2.42750205       5.73804813      15.62694528       0.00000000       0.00826961      -0.00635406      -0.00102612       0.00000000
Ag       0.09334595       1.40818419      14.78202274       0.00000000      -0.00443394      -0.02190214      -0.00701594       0.00000000
Ag       0.09731092       4.29682842      14.77858726       0.00000000      -0.00737169      -0.00684743      -0.00124783       0.00000000
Ag       0.08374014       7.18118043      14.80661524       0.00000000       0.00448925      -0.00598937      -0.00634260       0.00000000
Ag       4.80580113      -0.05991902      13.82815774       0.00000000       0.00196999      -0.01130087      -0.02855569       0.00000000
Ag       4.80970374       2.83521560      13.82063935       0.00000000      -0.00652889      -0.01331546      -0.02918582       0.00000000
Ag       4.80660774       5.73123393      13.83327154       0.00000000      -0.00316778      -0.00433667      -0.03125025       0.00000000
Ag       2.40348812       1.39379713      12.97296091       0.00000000       0.01491321      -0.00371327       0.00631860       0.00000000
Ag       2.40498003       4.28682883      12.97260762       0.00000000       0.01759919       0.00190525       0.00770581       0.00000000
Ag       2.39734435       7.17679982      12.97843373       0.00000000       0.02046496      -0.00061607       0.00768773       0.00000000
Ag       0.02653058      -0.01792891      12.09634729       0.00000000      -0.01752731      -0.00437478       0.01566884       0.00000000
Ag       0.02804412       2.87386910      12.09706493       0.00000000      -0.00999974      -0.00319770       0.00105145       0.00000000
Ag       0.02465223       5.76551189      12.10055152       0.00000000      -0.01041235       0.00244220       0.00287424       0.00000000
Ag       4.72272520       1.44603337      11.17433877       0.00000000       0.07172585      -0.02788991       0.42328125       0.00000000
Ag       4.72272520       4.33810010      11.17433877       0.00000000       0.07323869      -0.02036256       0.42668447       0.00000000
Ag       4.72272520       7.23016684      11.17433877       0.00000000       0.06320470      -0.02126646       0.44342213       0.00000000
Ag       2.36136260       0.00000000      10.33947102       0.00000000       0.04195379      -0.01846046       0.28844207       0.00000000
Ag       2.36136260       2.89206674      10.33947102       0.00000000       0.04369256      -0.01737882       0.28805223       0.00000000
Ag       2.36136260       5.78413347      10.33947102       0.00000000       0.03732257      -0.01403947       0.29514431       0.00000000
Ag      -0.00000000       1.44603337       9.50460326       0.00000000      -0.10620884      -0.00802937       0.04747686       0.00000000
Ag      -0.00000000       4.33810010       9.50460326       0.00000000      -0.10646281      -0.00559353       0.05154516       0.00000000
Ag      -0.00000000       7.23016684       9.50460326       0.00000000      -0.10619137      -0.00731902       0.05703084       0.00000000
Ag       4.72272520       0.00000000       8.66973551       0.00000000      -0.10886355      -0.00140912      -0.38244356       0.00000000
Ag       4.72272520       2.89206674       8.66973551       0.00000000      -0.10886853       0.00021578      -0.38297521       0.00000000
Ag       4.72272520       5.78413347       8.66973551       0.00000000      -0.10901301       0.00168700      -0.38191239       0.00000000
Ag       2.36136260       1.44603337       7.83486775       0.00000000       0.07419664      -0.00000657      -0.33074052       0.00000000
Ag       2.36136260       4.33810010       7.83486775       0.00000000       0.07445875       0.00041666      -0.33100821       0.00000000
Ag       2.36136260       7.23016684       7.83486775       0.00000000       0.07596472       0.00001707      -0.33064311       0.00000000
Ag       0.00000000       0.00000000       7.00000000       0.00000000      -0.04350104       0.00082033      -0.11964226       0.00000000
Ag       0.00000000       2.89206674       7.00000000       0.00000000      -0.04347736      -0.00024541      -0.12008606       0.00000000
Ag       0.00000000       5.78413347       7.00000000       0.00000000      -0.04370091      -0.00075226      -0.11997408       0.00000000
O        4.68098056       4.78058546      19.99042926       0.00000000       0.00296649       0.02542917      -0.00188408       0.00000000
H        4.44006650       4.92324905      19.05100054       0.00000000      -0.00207364       0.03082670      -0.00588400       0.00000000
H        5.65097274       4.87623703      19.98647138       0.00000000      -0.01026494       0.00641483       0.00751478       0.00000000
O        4.26760265       1.83582064      20.17512661       0.00000000       0.00059495       0.00619778       0.02972985       0.00000000
H        4.39230917       2.80984085      20.11119349       0.00000000       0.01469545      -0.00447912      -0.03562118       0.00000000
H        4.37322018       1.52913330      19.25341911       0.00000000      -0.01716104       0.03171682       0.02850965       0.00000000
Ag       4.80145533      10.05839043      16.40267099       0.00000000      -0.00840690      -0.01602096       0.00711690       0.00000000
Ag       2.42413618       8.63144782      15.62119061       0.00000000       0.01024284      -0.01628567       0.00191761       0.00000000
Ag       0.09135807      10.07961539      14.78421148       0.00000000      -0.01107893      -0.00588028       0.00644320       0.00000000
Ag       4.80595573       8.61326403      13.83876131       0.00000000      -0.00517826       0.01231625      -0.02800221       0.00000000
Ag       2.40121201      10.06939762      12.97286592       0.00000000       0.02540359      -0.00458342       0.00991691       0.00000000
Ag       0.02503601       8.65662627      12.10185426       0.00000000      -0.01882466      -0.00618721       0.00544613       0.00000000
Ag       4.72272520      10.12223357      11.17433877       0.00000000       0.06993071      -0.02896242       0.44052795       0.00000000
Ag       2.36136260       8.67620021      10.33947102       0.00000000       0.03708669      -0.02078897       0.29573893       0.00000000
Ag      -0.00000000      10.12223357       9.50460326       0.00000000      -0.10535097      -0.01078558       0.05183861       0.00000000
Ag       4.72272520       8.67620021       8.66973551       0.00000000      -0.10939471      -0.00003111      -0.38186003       0.00000000
Ag       2.36136260      10.12223357       7.83486775       0.00000000       0.07618899       0.00069387      -0.33057022       0.00000000
Ag       0.00000000       8.67620021       7.00000000       0.00000000      -0.04499229       0.00018811      -0.11870765       0.00000000
Ag       4.80090447      12.95083155      16.40511175       0.00000000      -0.00300726      -0.01993205       0.00320189       0.00000000
Ag       2.42880722      11.52216420      15.62008096       0.00000000       0.00190315      -0.00901542      -0.00420192       0.00000000
Ag       0.09158575      12.97516827      14.78438649       0.00000000      -0.01152000      -0.01643536       0.00261612       0.00000000
Ag       4.80590717      11.50838822      13.83134673       0.00000000       0.00203822      -0.00395854      -0.01785847       0.00000000
Ag       2.40086663      12.96178068      12.97372256       0.00000000       0.02101114      -0.00198906       0.00792637       0.00000000
Ag       0.02649547      11.54896618      12.09655243       0.00000000      -0.02179515      -0.00040589       0.01807362       0.00000000
Ag       4.72272520      13.01430031      11.17433877       0.00000000       0.06828118      -0.02808204       0.43297529       0.00000000
Ag       2.36136260      11.56826694      10.33947102       0.00000000       0.04246132      -0.01675742       0.28877632       0.00000000
Ag      -0.00000000      13.01430031       9.50460326       0.00000000      -0.10643596      -0.00809654       0.04881015       0.00000000
Ag       4.72272520      11.56826694       8.66973551       0.00000000      -0.10943012       0.00140207      -0.38303323       0.00000000
Ag       2.36136260      13.01430031       7.83486775       0.00000000       0.07673001       0.00023655      -0.33164287       0.00000000
Ag       0.00000000      11.56826694       7.00000000       0.00000000      -0.04510946       0.00028984      -0.11824652       0.00000000
