data_image0
_chemical_formula_structural       Ag36CO3H2OH2OH2OH2OH2Ag12OH2OH2
_chemical_formula_sum              "Ag48 C1 O9 H14"
_cell_length_a       7.084087802956708
_cell_length_b       11.568266940211917
_cell_length_c       28.0
_cell_angle_alpha    90.0
_cell_angle_beta     90.0
_cell_angle_gamma    90.0

_space_group_name_H-M_alt    "P 1"
_space_group_IT_number       1

loop_
  _space_group_symop_operation_xyz
  'x, y, z'

loop_
  _atom_site_type_symbol
  _atom_site_label
  _atom_site_symmetry_multiplicity
  _atom_site_fract_x
  _atom_site_fract_y
  _atom_site_fract_z
  _atom_site_occupancy
  Ag  Ag1       1.0  0.6872590893190529  0.13129694629927105  0.5881727892799747  1.0000
  Ag  Ag2       1.0  0.6913466628929933  0.3817052184912462  0.5966720288630062  1.0000
  Ag  Ag3       1.0  0.6876834053401978  0.6330894466690785  0.5879485512531336  1.0000
  Ag  Ag4       1.0  0.35068063865968613  0.006985051693069748  0.5596504723740442  1.0000
  Ag  Ag5       1.0  0.3554214214227157  0.25727074012459733  0.5575629710559559  1.0000
  Ag  Ag6       1.0  0.35269444023985635  0.506422940308154  0.5586691634990115  1.0000
  Ag  Ag7       1.0  0.02000291992237714  0.1310000491252948  0.529204461982536  1.0000
  Ag  Ag8       1.0  0.017396089440704518  0.38102916396213693  0.5297679577293793  1.0000
  Ag  Ag9       1.0  0.019660121823352687  0.6306505595311584  0.5287949481263672  1.0000
  Ag  Ag10      1.0  0.685103068759808  0.006187600937738336  0.4954708689190168  1.0000
  Ag  Ag11      1.0  0.6862340755568648  0.25733823948222667  0.49638616604674574  1.0000
  Ag  Ag12      1.0  0.6841628183232435  0.5038922125934463  0.4968958135648341  1.0000
  Ag  Ag13      1.0  0.3441100784557594  0.12934259733419554  0.4638789917299982  1.0000
  Ag  Ag14      1.0  0.34317335203749255  0.3799421955976048  0.46410173672790406  1.0000
  Ag  Ag15      1.0  0.3436584546005853  0.6296611912263167  0.46403257593906255  1.0000
  Ag  Ag16      1.0  0.0058965940424698885  0.0026229889537916717  0.4325812070953159  1.0000
  Ag  Ag17      1.0  0.005489815715726902  0.2524486373152306  0.4324983953127917  1.0000
  Ag  Ag18      1.0  0.004492182255380008  0.5027060853511174  0.43258880899619845  1.0000
  Ag  Ag19      1.0  0.666666666666667  0.125  0.39908352749974985  1.0000
  Ag  Ag20      1.0  0.666666666666667  0.37499999999999994  0.39908352749974985  1.0000
  Ag  Ag21      1.0  0.666666666666667  0.6250000000000001  0.39908352749974985  1.0000
  Ag  Ag22      1.0  0.3333333333333335  1.9626157052021068e-17  0.36926682199979993  1.0000
  Ag  Ag23      1.0  0.3333333333333335  0.25000000000000006  0.36926682199979993  1.0000
  Ag  Ag24      1.0  0.3333333333333335  0.5  0.36926682199979993  1.0000
  Ag  Ag25      1.0  0.0  0.12499999999999999  0.33945011649984985  1.0000
  Ag  Ag26      1.0  0.0  0.37499999999999994  0.33945011649984985  1.0000
  Ag  Ag27      1.0  0.0  0.6250000000000001  0.33945011649984985  1.0000
  Ag  Ag28      1.0  0.666666666666667  1.2355854890055692e-17  0.30963341099989994  1.0000
  Ag  Ag29      1.0  0.666666666666667  0.25  0.30963341099989994  1.0000
  Ag  Ag30      1.0  0.666666666666667  0.5  0.30963341099989994  1.0000
  Ag  Ag31      1.0  0.3333333333333335  0.12499999999999999  0.2798167054999499  1.0000
  Ag  Ag32      1.0  0.3333333333333335  0.37499999999999994  0.2798167054999499  1.0000
  Ag  Ag33      1.0  0.3333333333333335  0.6250000000000001  0.2798167054999499  1.0000
  Ag  Ag34      1.0  0.0  0.0  0.25  1.0000
  Ag  Ag35      1.0  0.0  0.25  0.25  1.0000
  Ag  Ag36      1.0  0.0  0.5  0.25  1.0000
  C   C1        1.0  0.7128440868645062  0.3834500221249493  0.6769809074383196  1.0000
  O   O1        1.0  0.8784756348595975  0.37083363217362064  0.6941697264685533  1.0000
  O   O2        1.0  0.5632730762063224  0.3987353252289631  0.7003939400769901  1.0000
  O   O3        1.0  0.4252602788887536  0.6030911731246269  0.7466667363372655  1.0000
  H   H1        1.0  0.28845350607190773  0.6056602503647384  0.7404071257183237  1.0000
  H   H2        1.0  0.46923737887856665  0.5335434129214923  0.7295903616799353  1.0000
  O   O4        1.0  0.8534742558406075  0.2155109004853571  0.7796070512999674  1.0000
  H   H3        1.0  0.8615951120760609  0.2728403843744775  0.753680386433714  1.0000
  H   H4        1.0  0.8110197843629373  0.14524380413000684  0.7632975656707673  1.0000
  O   O5        1.0  0.6869750814976687  0.010842767195773971  0.7259298828925238  1.0000
  H   H5        1.0  0.6532637591729377  0.03701163718811746  0.6939350302339323  1.0000
  H   H6        1.0  0.6938573200924318  0.926069473916336  0.7230200938755404  1.0000
  O   O6        1.0  0.15173025694922648  0.19318376672515714  0.6783681050375975  1.0000
  H   H7        1.0  0.18073424613845138  0.18171576499119504  0.644590722640829  1.0000
  H   H8        1.0  0.05682937999665272  0.25556887256504085  0.6782839456943442  1.0000
  O   O7        1.0  0.013951648745752597  0.5859621021358628  0.7427118318047868  1.0000
  H   H9        1.0  0.9264399672372595  0.6455778462643323  0.7311704947472721  1.0000
  H   H10       1.0  0.9750897055365535  0.515725059759653  0.7255037351235131  1.0000
  Ag  Ag37      1.0  0.6853357517142832  0.8818314512553593  0.5876060576013536  1.0000
  Ag  Ag38      1.0  0.3512102166166432  0.7566049296612039  0.5592557717510711  1.0000
  Ag  Ag39      1.0  0.01912052447639618  0.880618852532992  0.5294479672357416  1.0000
  Ag  Ag40      1.0  0.6852725814609335  0.7544983258842466  0.4949403459237802  1.0000
  Ag  Ag41      1.0  0.343233080446571  0.8796247993373131  0.4642222471485272  1.0000
  Ag  Ag42      1.0  0.006537644256594106  0.752783152757142  0.43244146087711555  1.0000
  Ag  Ag43      1.0  0.666666666666667  0.875  0.39908352749974985  1.0000
  Ag  Ag44      1.0  0.3333333333333335  0.7500000000000001  0.36926682199979993  1.0000
  Ag  Ag45      1.0  0.0  0.875  0.33945011649984985  1.0000
  Ag  Ag46      1.0  0.666666666666667  0.7500000000000001  0.30963341099989994  1.0000
  Ag  Ag47      1.0  0.3333333333333335  0.875  0.2798167054999499  1.0000
  Ag  Ag48      1.0  0.0  0.7500000000000001  0.25  1.0000
  O   O8        1.0  0.7102975875449503  0.757501046270789  0.7138752228861378  1.0000
  H   H11       1.0  0.7059298632697409  0.7535629284310168  0.6789101717118288  1.0000
  H   H12       1.0  0.5984450551880088  0.7119079965246724  0.7240615525162752  1.0000
  O   O9        1.0  0.2105123235597783  0.8693897298762928  0.683102941248145  1.0000
  H   H13       1.0  0.2790888564635313  0.852322800476118  0.6535690322646722  1.0000
  H   H14       1.0  0.10029044096444159  0.9116730767902363  0.6717844977235203  1.0000
