87
Lattice="7.084087802956708 0.0 0.0 0.0 14.460333675264895 0.0 0.0 0.0 28.0" Properties=species:S:1:pos:R:3:initial_magmoms:R:1:forces:R:3:magmoms:R:1 adsorbate_info="_JSON {\"sites\": {}}" energy=-265.6657833203715 dipole="-82.11012394764983 -18.729794826591746 7.94951579838037" magmom=0.0 pbc="T T F"
Ag       4.90027772       1.50824379      16.45010870       0.00000000      -0.00259525      -0.01281520       0.01396150       0.00000000
Ag       4.89335512       4.39582915      16.47713284       0.00000000      -0.00421857      -0.00137237       0.01113780       0.00000000
Ag       4.89297085       7.28316459      16.43852217       0.00000000       0.00455803      -0.01097093       0.00199515       0.00000000
Ag       2.53819817       0.03528588      15.66154056       0.00000000       0.00185152      -0.00554054       0.00400807       0.00000000
Ag       2.54056904       2.92896895      15.64864575       0.00000000       0.00341228       0.00272778      -0.00765868       0.00000000
Ag       2.51086127       5.81432530      15.70334695       0.00000000       0.00161850       0.00378588       0.00256111       0.00000000
Ag       0.17901391       1.46124424      14.83487123       0.00000000      -0.00463551      -0.00242680      -0.01106735       0.00000000
Ag       0.17006762       4.35044639      14.84528303       0.00000000       0.00192574       0.00891892      -0.00532062       0.00000000
Ag       0.17575130       7.24469399      14.82925524       0.00000000      -0.00452747      -0.00525127      -0.00568694       0.00000000
Ag       4.88178514       0.02916990      13.85831098       0.00000000      -0.00123020       0.00488426      -0.02676233       0.00000000
Ag       4.88131780       2.92337174      13.85851601       0.00000000      -0.00130379       0.00433542      -0.03139525       0.00000000
Ag       4.87219258       5.81433090      13.86886240       0.00000000      -0.00173089      -0.00329130      -0.02330390       0.00000000
Ag       2.46267969       1.45996775      13.00511083       0.00000000       0.00760334       0.00173753      -0.01949362       0.00000000
Ag       2.45761883       4.35613840      13.00974749       0.00000000       0.01251973       0.00188229      -0.01061360       0.00000000
Ag       2.45998793       7.24648508      13.01536379       0.00000000       0.01163138      -0.00025710      -0.01025665       0.00000000
Ag       0.06892837       0.00820697      12.12452624       0.00000000       0.00603122      -0.00169978      -0.01107182       0.00000000
Ag       0.06860093       2.90020907      12.12669153       0.00000000       0.00648860      -0.00021439      -0.01523531       0.00000000
Ag       0.06620123       5.79095577      12.12795319       0.00000000       0.00047416       0.00316710      -0.01064094       0.00000000
Ag       4.72272520       1.44603337      11.17433877       0.00000000       0.17663393       0.00945385       0.47734112       0.00000000
Ag       4.72272520       4.33810010      11.17433877       0.00000000       0.16580809       0.01578878       0.49026160       0.00000000
Ag       4.72272520       7.23016684      11.17433877       0.00000000       0.16351481       0.00814052       0.49640630       0.00000000
Ag       2.36136260       0.00000000      10.33947102       0.00000000       0.04984722       0.00132402       0.33490523       0.00000000
Ag       2.36136260       2.89206674      10.33947102       0.00000000       0.04921867       0.00562481       0.33103771       0.00000000
Ag       2.36136260       5.78413347      10.33947102       0.00000000       0.04570612       0.00608247       0.34316581       0.00000000
Ag      -0.00000000       1.44603337       9.50460326       0.00000000      -0.10726707       0.00317511       0.10564287       0.00000000
Ag      -0.00000000       4.33810010       9.50460326       0.00000000      -0.10853072       0.00478367       0.10749316       0.00000000
Ag      -0.00000000       7.23016684       9.50460326       0.00000000      -0.10777841       0.00193537       0.10833068       0.00000000
Ag       4.72272520       0.00000000       8.66973551       0.00000000      -0.10187896      -0.00034278      -0.39779728       0.00000000
Ag       4.72272520       2.89206674       8.66973551       0.00000000      -0.10455867       0.00172139      -0.39353061       0.00000000
Ag       4.72272520       5.78413347       8.66973551       0.00000000      -0.10355650      -0.00166045      -0.39658830       0.00000000
Ag       2.36136260       1.44603337       7.83486775       0.00000000       0.07529273       0.00098648      -0.32833770       0.00000000
Ag       2.36136260       4.33810010       7.83486775       0.00000000       0.07680100      -0.00096988      -0.32848460       0.00000000
Ag       2.36136260       7.23016684       7.83486775       0.00000000       0.07467618       0.00020493      -0.32552352       0.00000000
Ag       0.00000000       0.00000000       7.00000000       0.00000000      -0.04685637      -0.00036393      -0.15044725       0.00000000
Ag       0.00000000       2.89206674       7.00000000       0.00000000      -0.04916953      -0.00009793      -0.14848411       0.00000000
Ag       0.00000000       5.78413347       7.00000000       0.00000000      -0.04711364      -0.00028699      -0.15038258       0.00000000
O        3.07390015       6.12867622      19.85917743       0.00000000      -0.01258929      -0.02041337       0.00934684       0.00000000
H        2.10325045       6.27301582      19.76240625       0.00000000       0.00262228       0.01564487      -0.00581866       0.00000000
H        3.35023637       5.80074676      18.97913716       0.00000000      -0.02055952       0.00804857       0.01303692       0.00000000
O        6.06423448       2.93704314      21.46215306       0.00000000       0.00375242      -0.00898540      -0.02111492       0.00000000
H        6.71384904       3.24023856      20.80278208       0.00000000       0.02833916      -0.01941866       0.00454851       0.00000000
H        5.67272949       2.13585605      21.04492963       0.00000000      -0.01916301      -0.01059313       0.01305605       0.00000000
O        4.70690716       0.72926320      20.17026359       0.00000000       0.00160813      -0.01975439      -0.02076606       0.00000000
H        4.61902778       0.97408193      19.22685970       0.00000000      -0.01537101      -0.00221068       0.00739024       0.00000000
H        4.81054849      -0.24989850      20.14243823       0.00000000      -0.00393478      -0.01046646       0.02719802       0.00000000
O        1.14983157       2.28823390      18.92094608       0.00000000      -0.01472760       0.04180852      -0.01221753       0.00000000
H        2.06978813       2.47221665      18.64377691       0.00000000      -0.00612278       0.00845766       0.02800541       0.00000000
H        0.65432316       2.38605507      18.08060387       0.00000000      -0.00194689      -0.00237823       0.01075787       0.00000000
O        0.16176847       6.21454571      19.51780908       0.00000000      -0.00693278       0.00151239      -0.00757125       0.00000000
H       -0.51237527       6.91106564      19.70751926       0.00000000       0.01005021       0.01356708       0.02102282       0.00000000
H        0.00165818       5.99673707      18.57925043       0.00000000       0.02349803      -0.00963165       0.00544693       0.00000000
Ag       4.89075148      10.18348946      16.47695963       0.00000000       0.00117840      -0.00762088       0.02992888       0.00000000
Ag       2.52242153       8.71322858      15.68683541       0.00000000      -0.00069554      -0.00151976       0.00016795       0.00000000
Ag       0.17064255      10.13865686      14.84160097       0.00000000       0.00018048      -0.00705175      -0.00563469       0.00000000
Ag       4.87642480       8.71106169      13.86535887       0.00000000      -0.00244772      -0.00170610      -0.02575725       0.00000000
Ag       2.45877986      10.13800437      13.01647595       0.00000000       0.00717809       0.00080444      -0.01842842       0.00000000
Ag       0.06778782       8.68368493      12.12673418       0.00000000       0.00290015       0.00273648      -0.00859160       0.00000000
Ag       4.72272520      10.12223357      11.17433877       0.00000000       0.16061705       0.00874752       0.49456510       0.00000000
Ag       2.36136260       8.67620021      10.33947102       0.00000000       0.04888076       0.00469811       0.34479001       0.00000000
Ag      -0.00000000      10.12223357       9.50460326       0.00000000      -0.10841896       0.00237518       0.10856435       0.00000000
Ag       4.72272520       8.67620021       8.66973551       0.00000000      -0.10363737       0.00021218      -0.39389170       0.00000000
Ag       2.36136260      10.12223357       7.83486775       0.00000000       0.07503183       0.00069279      -0.32623386       0.00000000
Ag       0.00000000       8.67620021       7.00000000       0.00000000      -0.04899754       0.00026963      -0.14989725       0.00000000
O        5.10112893       8.15593936      20.06348313       0.00000000      -0.02200229       0.01312287      -0.00738984       0.00000000
H        5.01995784       8.67938576      19.24116476       0.00000000       0.00266006       0.02054596       0.00806765       0.00000000
H        4.31885969       7.55159145      20.02909744       0.00000000       0.00810832      -0.01440968      -0.00254882       0.00000000
O        1.40736035      10.03542365      19.08516066       0.00000000       0.00481468       0.00196510      -0.03208982       0.00000000
H        2.16054106      10.06274678      18.45969930       0.00000000       0.01725784      -0.00230018       0.01570222       0.00000000
H        0.64015960      10.03225518      18.48157296       0.00000000      -0.02273315       0.00085213       0.02668975       0.00000000
Ag       4.90273330      13.06806575      16.44449636       0.00000000       0.00061913      -0.01031748       0.00611231       0.00000000
Ag       2.51767985      11.60418436      15.69965530       0.00000000       0.00045697       0.00982180       0.00372405       0.00000000
Ag       0.17969150      13.02962535      14.82944560       0.00000000       0.00119507      -0.00119268      -0.00671186       0.00000000
Ag       4.87759481      11.59822274      13.86541293       0.00000000      -0.01051126       0.00044215      -0.02800799       0.00000000
Ag       2.46394093      13.02598196      13.01045773       0.00000000      -0.00094682      -0.00146918      -0.01355238       0.00000000
Ag       0.06660844      11.57481330      12.12689219       0.00000000       0.01080502       0.00193973      -0.01380005       0.00000000
Ag       4.72272520      13.01430031      11.17433877       0.00000000       0.17058133       0.01006894       0.47884978       0.00000000
Ag       2.36136260      11.56826694      10.33947102       0.00000000       0.04537892       0.00131200       0.34207287       0.00000000
Ag      -0.00000000      13.01430031       9.50460326       0.00000000      -0.10871573       0.00157549       0.10708307       0.00000000
Ag       4.72272520      11.56826694       8.66973551       0.00000000      -0.10337363      -0.00090738      -0.39486278       0.00000000
Ag       2.36136260      13.01430031       7.83486775       0.00000000       0.07409263      -0.00126530      -0.32729345       0.00000000
Ag       0.00000000      11.56826694       7.00000000       0.00000000      -0.04590760       0.00026011      -0.15027577       0.00000000
O        4.73664497      12.22473772      20.03245667       0.00000000      -0.01510781      -0.00610823      -0.02184086       0.00000000
H        4.96281621      12.00383907      19.10344881       0.00000000       0.00734001       0.00159475       0.01199753       0.00000000
H        3.77368087      12.07450326      20.06414676       0.00000000      -0.00623396       0.00434344       0.01575686       0.00000000
O        1.22565978      13.82200472      19.26018280       0.00000000       0.01300605       0.00970303      -0.01588086       0.00000000
H        1.37167911      13.49142982      18.35299954       0.00000000      -0.00688580      -0.01547867       0.00979659       0.00000000
H        1.18751992      14.79821911      19.13970442       0.00000000      -0.00162121       0.00509566       0.01253506       0.00000000
