data_image0
_chemical_formula_structural       Au18OH2OH2OH2OH2Au18OH2OH2OH2OH2Au18O4H8
_chemical_formula_sum              "Au54 O12 H24"
_cell_length_a       9.058037866999674
_cell_length_b       15.68898180252625
_cell_length_c       25.0
_cell_angle_alpha    90.0
_cell_angle_beta     90.0
_cell_angle_gamma    90.0

_space_group_name_H-M_alt    "P 1"
_space_group_IT_number       1

loop_
  _space_group_symop_operation_xyz
  'x, y, z'

loop_
  _atom_site_type_symbol
  _atom_site_label
  _atom_site_symmetry_multiplicity
  _atom_site_fract_x
  _atom_site_fract_y
  _atom_site_fract_z
  _atom_site_occupancy
  Au  Au1       1.0  0.24101854534511719  0.08333333333333334  0.28  1.0000
  Au  Au2       1.0  0.5743518786784505  0.08333333333333334  0.28  1.0000
  Au  Au3       1.0  0.9076852120117839  0.08333333333333334  0.28  1.0000
  Au  Au4       1.0  0.07435187867845046  0.25  0.28  1.0000
  Au  Au5       1.0  0.40768521201178376  0.25  0.28  1.0000
  Au  Au6       1.0  0.7410185453451171  0.25  0.28  1.0000
  Au  Au7       1.0  0.0735321189897742  0.1394713057141631  0.3768662231491026  1.0000
  Au  Au8       1.0  0.40658856806049637  0.13949153966311856  0.37687568211089895  1.0000
  Au  Au9       1.0  0.7398788799333184  0.13943933370690384  0.37681996752766794  1.0000
  Au  Au10      1.0  0.2404063468353847  0.3064796787109458  0.37635772657941763  1.0000
  Au  Au11      1.0  0.5734146365971913  0.30655719757668076  0.37647044454477907  1.0000
  Au  Au12      1.0  0.906159456181752  0.30650226206887976  0.37639133126240815  1.0000
  Au  Au13      1.0  0.0731086992274078  0.02866670640321837  0.4738314478579199  1.0000
  Au  Au14      1.0  0.4061653852395561  0.028704533671921596  0.47378057532009654  1.0000
  Au  Au15      1.0  0.7396220002332794  0.02879311824223684  0.4739832558488902  1.0000
  Au  Au16      1.0  0.23984799116133695  0.19633345430148713  0.473343012472008  1.0000
  Au  Au17      1.0  0.573127451570197  0.19596251777948703  0.4731526065718859  1.0000
  Au  Au18      1.0  0.9061882919505293  0.19578238265753442  0.47299375224760454  1.0000
  O   O1        1.0  0.7431717486099506  0.038135117441407185  0.6425506205555438  1.0000
  H   H1        1.0  0.7960535098610566  0.9849362735965957  0.6514680051744192  1.0000
  H   H2        1.0  0.7422270528518607  0.03871465396275127  0.6036302809416902  1.0000
  O   O2        1.0  0.898691861938905  0.21325619447115607  0.6706285133196477  1.0000
  H   H3        1.0  0.8540085041042352  0.15834185789595812  0.6612873250821396  1.0000
  H   H4        1.0  0.0015479131629498877  0.20810852465426988  0.6589681151083809  1.0000
  O   O3        1.0  0.3905782481284782  0.0404123450106452  0.6687689499242057  1.0000
  H   H5        1.0  0.3490874889132066  0.9853569904740306  0.6578762842305269  1.0000
  H   H6        1.0  0.49558737129311864  0.03672088684408094  0.6599141073232747  1.0000
  O   O4        1.0  0.23545826341525863  0.20154927517640292  0.6362903718133242  1.0000
  H   H7        1.0  0.285322355573417  0.14771247559502618  0.6457269921380985  1.0000
  H   H8        1.0  0.2349199211990855  0.20147834072665774  0.5973380430933295  1.0000
  Au  Au19      1.0  0.24101854534511719  0.4166666666666667  0.28  1.0000
  Au  Au20      1.0  0.5743518786784505  0.4166666666666667  0.28  1.0000
  Au  Au21      1.0  0.9076852120117839  0.4166666666666667  0.28  1.0000
  Au  Au22      1.0  0.07435187867845046  0.5833333333333334  0.28  1.0000
  Au  Au23      1.0  0.40768521201178376  0.5833333333333334  0.28  1.0000
  Au  Au24      1.0  0.7410185453451171  0.5833333333333334  0.28  1.0000
  Au  Au25      1.0  0.07327334656203127  0.47290057443701516  0.3772221080311169  1.0000
  Au  Au26      1.0  0.406602262202146  0.4725316288277413  0.3774558925520819  1.0000
  Au  Au27      1.0  0.7398712112382025  0.47251801611901806  0.37745668432134816  1.0000
  Au  Au28      1.0  0.24010711719386893  0.6392232641713712  0.37694819554274844  1.0000
  Au  Au29      1.0  0.5733577650506845  0.6391530551890713  0.37704258650606565  1.0000
  Au  Au30      1.0  0.906315886282475  0.6393543563632312  0.3770276264225496  1.0000
  Au  Au31      1.0  0.07301090888059811  0.36129601435218556  0.4730545214591004  1.0000
  Au  Au32      1.0  0.40716097712423066  0.36126005313385307  0.4742885008087334  1.0000
  Au  Au33      1.0  0.7390382923753706  0.3614924469475963  0.4747769875055179  1.0000
  Au  Au34      1.0  0.23971436720114686  0.5287507010813062  0.4741228743716673  1.0000
  Au  Au35      1.0  0.5729909054066942  0.5287837659359353  0.474085861221872  1.0000
  Au  Au36      1.0  0.9061425265791669  0.5287072586418678  0.473946342172034  1.0000
  O   O5        1.0  0.7417217830822744  0.37343630109954923  0.6438152320276062  1.0000
  H   H9        1.0  0.7932961915567808  0.3196911744498874  0.6524597029780543  1.0000
  H   H10       1.0  0.7398234265301061  0.3743158586673338  0.6048963710362047  1.0000
  O   O6        1.0  0.9015002916379342  0.546598532469887  0.6712878666508553  1.0000
  H   H11       1.0  0.8563677642542046  0.4916759706257622  0.6622414592155336  1.0000
  H   H12       1.0  0.00391730587857908  0.5415147047370791  0.6590954599747454  1.0000
  O   O7        1.0  0.38810728750409906  0.3739123779191727  0.6693256610529541  1.0000
  H   H13       1.0  0.3475959153599666  0.3188645740329949  0.6579803874246244  1.0000
  H   H14       1.0  0.49338228464901074  0.37053916816271826  0.6609045015213667  1.0000
  O   O8        1.0  0.2366950344653592  0.5355880417238076  0.6362761964490639  1.0000
  H   H15       1.0  0.2853827637210478  0.48146871129794666  0.6459278858690211  1.0000
  H   H16       1.0  0.23662491419671405  0.5352466127120263  0.5973171530748718  1.0000
  Au  Au37      1.0  0.24101854534511719  0.75  0.28  1.0000
  Au  Au38      1.0  0.5743518786784505  0.75  0.28  1.0000
  Au  Au39      1.0  0.9076852120117839  0.75  0.28  1.0000
  Au  Au40      1.0  0.07435187867845046  0.9166666666666666  0.28  1.0000
  Au  Au41      1.0  0.40768521201178376  0.9166666666666666  0.28  1.0000
  Au  Au42      1.0  0.7410185453451171  0.9166666666666666  0.28  1.0000
  Au  Au43      1.0  0.07333557820871849  0.8062005564470618  0.3762037997690686  1.0000
  Au  Au44      1.0  0.4064696927097462  0.8061832814070455  0.37621599798810934  1.0000
  Au  Au45      1.0  0.7398844029689206  0.8061477216662558  0.37619336757474187  1.0000
  Au  Au46      1.0  0.23998186545749445  0.9727509850544042  0.37718062658971335  1.0000
  Au  Au47      1.0  0.5733232227659744  0.9729985011939293  0.3770794177644533  1.0000
  Au  Au48      1.0  0.9066162601352427  0.9730135620957869  0.3770915212537585  1.0000
  Au  Au49      1.0  0.072977649773342  0.6962635111664753  0.47323055906920697  1.0000
  Au  Au50      1.0  0.4064468090436643  0.6965351941924381  0.47338624362081777  1.0000
  Au  Au51      1.0  0.7395603283783145  0.6969345737340299  0.4737887256532295  1.0000
  Au  Au52      1.0  0.23958131645128228  0.8614197095962359  0.4733937158902658  1.0000
  Au  Au53      1.0  0.5729725775097738  0.8619141410314156  0.47285795043218265  1.0000
  Au  Au54      1.0  0.9064209152493756  0.8617988112981766  0.4728926497139188  1.0000
  O   O9        1.0  0.2347176926545918  0.86804134432468  0.6369666772865665  1.0000
  O   O10       1.0  0.38893773913523705  0.7077788333756416  0.6688384539489463  1.0000
  O   O11       1.0  0.7404729235143844  0.7050851944829105  0.6427587968503679  1.0000
  O   O12       1.0  0.9017629757417807  0.880031796502988  0.6710036049786171  1.0000
  H   H17       1.0  0.2354420139642957  0.8684580029872631  0.5980138474924412  1.0000
  H   H18       1.0  0.28492605306576024  0.8142568605409722  0.6463984818436572  1.0000
  H   H19       1.0  0.34745574391121375  0.6527856809969792  0.6578280103246585  1.0000
  H   H20       1.0  0.49415637263292445  0.703901469283427  0.660353321191556  1.0000
  H   H21       1.0  0.7409205480538597  0.7063701297567074  0.603827636661648  1.0000
  H   H22       1.0  0.7937079266826019  0.6519816921724085  0.6516014912343853  1.0000
  H   H23       1.0  0.8558915766203482  0.825365630287949  0.6619355265344434  1.0000
  H   H24       1.0  0.0044754345009867524  0.8742669585780593  0.6592269996844707  1.0000
