data_image0
_chemical_formula_structural       Au18OH2OH2OH2OH3
_chemical_formula_sum              "Au18 O4 H9"
_cell_length_a       9.058037866999674
_cell_length_b       5.229660600842084
_cell_length_c       25.0
_cell_angle_alpha    90.0
_cell_angle_beta     90.0
_cell_angle_gamma    90.0

_space_group_name_H-M_alt    "P 1"
_space_group_IT_number       1

loop_
  _space_group_symop_operation_xyz
  'x, y, z'

loop_
  _atom_site_type_symbol
  _atom_site_label
  _atom_site_symmetry_multiplicity
  _atom_site_fract_x
  _atom_site_fract_y
  _atom_site_fract_z
  _atom_site_occupancy
  Au  Au1       1.0  0.24101854534511719  0.25000000000000006  0.28  1.0000
  Au  Au2       1.0  0.5743518786784505  0.25000000000000006  0.28  1.0000
  Au  Au3       1.0  0.9076852120117839  0.25000000000000006  0.28  1.0000
  Au  Au4       1.0  0.07435187867845046  0.7500000000000001  0.28  1.0000
  Au  Au5       1.0  0.40768521201178376  0.7500000000000001  0.28  1.0000
  Au  Au6       1.0  0.7410185453451171  0.7500000000000001  0.28  1.0000
  Au  Au7       1.0  0.07344191578898193  0.41119790889363705  0.37702226200623384  1.0000
  Au  Au8       1.0  0.4068619406451219  0.41255040920119324  0.3767783563084061  1.0000
  Au  Au9       1.0  0.7400626649662252  0.4107222054362234  0.37709582214990955  1.0000
  Au  Au10      1.0  0.24037905546443353  0.9125521285987552  0.37676064057434977  1.0000
  Au  Au11      1.0  0.5732001962996898  0.9117516808105265  0.3769700375897551  1.0000
  Au  Au12      1.0  0.9067136913973541  0.9101598797319018  0.377231179763592  1.0000
  Au  Au13      1.0  0.07340210306188823  0.09222464010999537  0.47397967691200826  1.0000
  Au  Au14      1.0  0.406181844328605  0.09267073930416703  0.4746682477374229  1.0000
  Au  Au15      1.0  0.7395820428320163  0.09235332521071168  0.474099980128644  1.0000
  Au  Au16      1.0  0.23962414482022285  0.59225884813921  0.47387781469114176  1.0000
  Au  Au17      1.0  0.5733074385163778  0.5922881839192538  0.4739999816709256  1.0000
  Au  Au18      1.0  0.9062297023739229  0.5918675795017384  0.47463611724109145  1.0000
  O   O1        1.0  0.61836324521782  0.009259001800528778  0.6507406614368181  1.0000
  H   H1        1.0  0.673462653452474  0.8527054981888179  0.6411583124773944  1.0000
  H   H2        1.0  0.6767133501088801  0.16102550846314106  0.6400715204921373  1.0000
  O   O2        1.0  0.7436487873606936  0.5060230440619735  0.6234419239859572  1.0000
  H   H3        1.0  0.7607612839382351  0.5098000044550797  0.5847940845183268  1.0000
  H   H4        1.0  0.8427072413711271  0.5025365098848752  0.6387971056539002  1.0000
  O   O3        1.0  0.3698216169942933  0.03905003883745463  0.6123929593558222  1.0000
  H   H5        1.0  0.3066285305132902  0.877222386893674  0.6170905729439466  1.0000
  H   H6        1.0  0.4855725148397942  0.01552033465535913  0.6298889274691614  1.0000
  O   O4        1.0  0.1907638466383484  0.6452202711918613  0.6200654032226325  1.0000
  H   H7        1.0  0.23127786709837506  0.49759508876529984  0.6389188471600217  1.0000
  H   H8        1.0  0.17136150075205944  0.5826384400941386  0.583793448898887  1.0000
  H   H9        1.0  0.37989475123366223  0.06508909885681606  0.5731731003014676  1.0000
data_image1
_chemical_formula_structural       Au18OH2OH2OH2OH3
_chemical_formula_sum              "Au18 O4 H9"
_cell_length_a       9.058037866999674
_cell_length_b       5.229660600842084
_cell_length_c       25.0
_cell_angle_alpha    90.0
_cell_angle_beta     90.0
_cell_angle_gamma    90.0

_space_group_name_H-M_alt    "P 1"
_space_group_IT_number       1

loop_
  _space_group_symop_operation_xyz
  'x, y, z'

loop_
  _atom_site_type_symbol
  _atom_site_label
  _atom_site_symmetry_multiplicity
  _atom_site_fract_x
  _atom_site_fract_y
  _atom_site_fract_z
  _atom_site_occupancy
  Au  Au1       1.0  0.24101854534511719  0.25000000000000006  0.28  1.0000
  Au  Au2       1.0  0.5743518786784505  0.25000000000000006  0.28  1.0000
  Au  Au3       1.0  0.9076852120117839  0.25000000000000006  0.28  1.0000
  Au  Au4       1.0  0.07435187867845046  0.7500000000000001  0.28  1.0000
  Au  Au5       1.0  0.40768521201178376  0.7500000000000001  0.28  1.0000
  Au  Au6       1.0  0.7410185453451171  0.7500000000000001  0.28  1.0000
  Au  Au7       1.0  0.07787914734612549  0.42155250383789655  0.3759665597799237  1.0000
  Au  Au8       1.0  0.4080316475642512  0.40833254514695627  0.37782237896329274  1.0000
  Au  Au9       1.0  0.7434928896023419  0.41967073218489487  0.37548659526167166  1.0000
  Au  Au10      1.0  0.24530593254569394  0.9202624692215315  0.3763896335193566  1.0000
  Au  Au11      1.0  0.571996805034568  0.9130120895103523  0.37753494016613404  1.0000
  Au  Au12      1.0  0.9106305947894077  0.9214386792876949  0.3759394422483362  1.0000
  Au  Au13      1.0  0.07257849354251615  0.09310786378536984  0.4730815802985396  1.0000
  Au  Au14      1.0  0.40319703688310354  0.08747472603181077  0.48115699835134595  1.0000
  Au  Au15      1.0  0.740641531940707  0.09056277858328543  0.47277082387912295  1.0000
  Au  Au16      1.0  0.2393739503106174  0.5929099725107501  0.4730951649665703  1.0000
  Au  Au17      1.0  0.5780918367571406  0.5804387420296302  0.4721586668603758  1.0000
  Au  Au18      1.0  0.9071620673890872  0.5927769603235874  0.4730731203327772  1.0000
  O   O1        1.0  0.6093591070440052  0.021022702292995053  0.6546036689182195  1.0000
  H   H1        1.0  0.6626123925475463  0.8696579102101158  0.6416938583968969  1.0000
  H   H2        1.0  0.6670171547881095  0.1694197747422741  0.6418566101232517  1.0000
  O   O2        1.0  0.7402364200975595  0.4911590775371726  0.614559489024331  1.0000
  H   H3        1.0  0.7374632149014007  0.4866480584106626  0.575392752010067  1.0000
  H   H4        1.0  0.8454238727058622  0.4917628767538551  0.6229237356508927  1.0000
  O   O3        1.0  0.34413621943650785  0.06313777384890273  0.6057806093265  1.0000
  H   H5        1.0  0.28757997326307716  0.9023949735029506  0.6144461216768639  1.0000
  H   H6        1.0  0.4423121704037834  0.04726982033739808  0.626674638734551  1.0000
  O   O4        1.0  0.1817610312260057  0.5890724426793447  0.6158083033353328  1.0000
  H   H7        1.0  0.23497453031850538  0.4281648918119258  0.6213301431944848  1.0000
  H   H8        1.0  0.15027816905831864  0.5774279509442781  0.5784095708640216  1.0000
  H   H9        1.0  0.3680443759014159  0.06818220530027691  0.5589275482962368  1.0000
data_image2
_chemical_formula_structural       Au18OH2OH2OH2OH3
_chemical_formula_sum              "Au18 O4 H9"
_cell_length_a       9.058037866999674
_cell_length_b       5.229660600842084
_cell_length_c       25.0
_cell_angle_alpha    90.0
_cell_angle_beta     90.0
_cell_angle_gamma    90.0

_space_group_name_H-M_alt    "P 1"
_space_group_IT_number       1

loop_
  _space_group_symop_operation_xyz
  'x, y, z'

loop_
  _atom_site_type_symbol
  _atom_site_label
  _atom_site_symmetry_multiplicity
  _atom_site_fract_x
  _atom_site_fract_y
  _atom_site_fract_z
  _atom_site_occupancy
  Au  Au1       1.0  0.24101854534511719  0.25000000000000006  0.28  1.0000
  Au  Au2       1.0  0.5743518786784505  0.25000000000000006  0.28  1.0000
  Au  Au3       1.0  0.9076852120117839  0.25000000000000006  0.28  1.0000
  Au  Au4       1.0  0.07435187867845046  0.7500000000000001  0.28  1.0000
  Au  Au5       1.0  0.40768521201178376  0.7500000000000001  0.28  1.0000
  Au  Au6       1.0  0.7410185453451171  0.7500000000000001  0.28  1.0000
  Au  Au7       1.0  0.07782764620010817  0.42154833210580295  0.3759345653203655  1.0000
  Au  Au8       1.0  0.40807586220116293  0.40744125665159875  0.37804839090302333  1.0000
  Au  Au9       1.0  0.7435773480128068  0.41985908546347794  0.37541469155102375  1.0000
  Au  Au10      1.0  0.24553209429083428  0.9205998460525159  0.3764201316153927  1.0000
  Au  Au11      1.0  0.5711108287287991  0.9141759203695486  0.37772335563994697  1.0000
  Au  Au12      1.0  0.9106149845350977  0.9211527583189089  0.3758696986243582  1.0000
  Au  Au13      1.0  0.07151295512148033  0.09330828207493427  0.4729272219665247  1.0000
  Au  Au14      1.0  0.4027825063358566  0.0865400399089093  0.48068259031696936  1.0000
  Au  Au15      1.0  0.7415503728148392  0.09041543095530341  0.47264023860230764  1.0000
  Au  Au16      1.0  0.2385244288536864  0.59251867648115  0.47283024577308874  1.0000
  Au  Au17      1.0  0.5790603935014517  0.5798029114578196  0.4719022380960477  1.0000
  Au  Au18      1.0  0.9071632968057304  0.5928352468474131  0.47304564928693765  1.0000
  O   O1        1.0  0.6147820124181543  0.019661859285310175  0.6562277177382018  1.0000
  H   H1        1.0  0.66466063836147  0.8691371869416684  0.6415629489668703  1.0000
  H   H2        1.0  0.6681517063191378  0.16858204674285088  0.6417316749435242  1.0000
  O   O2        1.0  0.7404229025409182  0.49138233761457273  0.6144651887510522  1.0000
  H   H3        1.0  0.7373182187809394  0.4864700750729041  0.5753520319470127  1.0000
  H   H4        1.0  0.8455925797273421  0.4914104013283269  0.6227912780417016  1.0000
  O   O3        1.0  0.33595952238557925  0.07189926434674748  0.6136257427707883  1.0000
  H   H5        1.0  0.2868923524359466  0.9038019842367112  0.6172634465714283  1.0000
  H   H6        1.0  0.4363937728010703  0.04691754138890719  0.6292970093197029  1.0000
  O   O4        1.0  0.18076618126710312  0.5822926021788015  0.6159559535155249  1.0000
  H   H7        1.0  0.23508233083588637  0.42098479913930725  0.6206008969674038  1.0000
  H   H8        1.0  0.1515238081869393  0.5771792321110327  0.5783369144240458  1.0000
  H   H9        1.0  0.3734047677597779  0.07586824689582702  0.5459472992787583  1.0000
data_image3
_chemical_formula_structural       Au18OH2OH2OH2OH3
_chemical_formula_sum              "Au18 O4 H9"
_cell_length_a       9.058037866999674
_cell_length_b       5.229660600842084
_cell_length_c       25.0
_cell_angle_alpha    90.0
_cell_angle_beta     90.0
_cell_angle_gamma    90.0

_space_group_name_H-M_alt    "P 1"
_space_group_IT_number       1

loop_
  _space_group_symop_operation_xyz
  'x, y, z'

loop_
  _atom_site_type_symbol
  _atom_site_label
  _atom_site_symmetry_multiplicity
  _atom_site_fract_x
  _atom_site_fract_y
  _atom_site_fract_z
  _atom_site_occupancy
  Au  Au1       1.0  0.24101854534511719  0.25000000000000006  0.28  1.0000
  Au  Au2       1.0  0.5743518786784505  0.25000000000000006  0.28  1.0000
  Au  Au3       1.0  0.9076852120117839  0.25000000000000006  0.28  1.0000
  Au  Au4       1.0  0.07435187867845046  0.7500000000000001  0.28  1.0000
  Au  Au5       1.0  0.40768521201178376  0.7500000000000001  0.28  1.0000
  Au  Au6       1.0  0.7410185453451171  0.7500000000000001  0.28  1.0000
  Au  Au7       1.0  0.0774863561692476  0.4210109867529599  0.37572230988802946  1.0000
  Au  Au8       1.0  0.40829577822878615  0.4084529765497783  0.37811606306318907  1.0000
  Au  Au9       1.0  0.7438192374421972  0.42039389636790087  0.37528837741919646  1.0000
  Au  Au10      1.0  0.24522307234029275  0.9206630889983779  0.37649901434904515  1.0000
  Au  Au11      1.0  0.5691941884267642  0.9173699102117672  0.37774050765067374  1.0000
  Au  Au12      1.0  0.9109382789995458  0.9204634707412132  0.3754144826108416  1.0000
  Au  Au13      1.0  0.07174699050547122  0.0933289201605998  0.4729749480462411  1.0000
  Au  Au14      1.0  0.4076546572166452  0.07965512109503663  0.4774579775226854  1.0000
  Au  Au15      1.0  0.7462727816988413  0.08230050664667829  0.47153203958494677  1.0000
  Au  Au16      1.0  0.23724115696602524  0.5902694451129726  0.47252741765607176  1.0000
  Au  Au17      1.0  0.5824780382340645  0.5775792430961044  0.47195466230157535  1.0000
  Au  Au18      1.0  0.9082728030025888  0.5908424221883157  0.47300071485192946  1.0000
  O   O1        1.0  0.6260548610945932  0.02417488665942004  0.6576404451817588  1.0000
  H   H1        1.0  0.6693370488125663  0.8736523325422082  0.6405642034194609  1.0000
  H   H2        1.0  0.6733580358120812  0.17239770227512743  0.6403111974279784  1.0000
  O   O2        1.0  0.7440612184968779  0.4892406319754424  0.6128422627572332  1.0000
  H   H3        1.0  0.7346258779357158  0.4797635281619424  0.5738952048433131  1.0000
  H   H4        1.0  0.8504481575112279  0.486025617201799  0.6188641009524473  1.0000
  O   O3        1.0  0.3217107011088916  0.08297396366613934  0.6345682417182804  1.0000
  H   H5        1.0  0.2830534652492715  0.9123174422856435  0.626022388657854  1.0000
  H   H6        1.0  0.42903269801369687  0.056706153044197766  0.6391099791067515  1.0000
  O   O4        1.0  0.18417986189023783  0.5775170045811524  0.6148896853848949  1.0000
  H   H7        1.0  0.2353039043571602  0.4135871387698339  0.621257192173738  1.0000
  H   H8        1.0  0.17221484821521404  0.5816771403121929  0.576059437921582  1.0000
  H   H9        1.0  0.3815359748869065  0.08676092470102753  0.5411848522903568  1.0000
data_image4
_chemical_formula_structural       Au18OH2OH2OH2OH3
_chemical_formula_sum              "Au18 O4 H9"
_cell_length_a       9.058037866999674
_cell_length_b       5.229660600842084
_cell_length_c       25.0
_cell_angle_alpha    90.0
_cell_angle_beta     90.0
_cell_angle_gamma    90.0

_space_group_name_H-M_alt    "P 1"
_space_group_IT_number       1

loop_
  _space_group_symop_operation_xyz
  'x, y, z'

loop_
  _atom_site_type_symbol
  _atom_site_label
  _atom_site_symmetry_multiplicity
  _atom_site_fract_x
  _atom_site_fract_y
  _atom_site_fract_z
  _atom_site_occupancy
  Au  Au1       1.0  0.24101854534511719  0.25000000000000006  0.28  1.0000
  Au  Au2       1.0  0.5743518786784505  0.25000000000000006  0.28  1.0000
  Au  Au3       1.0  0.9076852120117839  0.25000000000000006  0.28  1.0000
  Au  Au4       1.0  0.07435187867845046  0.7500000000000001  0.28  1.0000
  Au  Au5       1.0  0.40768521201178376  0.7500000000000001  0.28  1.0000
  Au  Au6       1.0  0.7410185453451171  0.7500000000000001  0.28  1.0000
  Au  Au7       1.0  0.07677611432992355  0.42072742497844834  0.3752727960099393  1.0000
  Au  Au8       1.0  0.40863764273552383  0.4093550874450077  0.3778998782995667  1.0000
  Au  Au9       1.0  0.7448442519482006  0.4208045621778952  0.3752487548766938  1.0000
  Au  Au10      1.0  0.24786766542889122  0.9211555871373506  0.3774956625420628  1.0000
  Au  Au11      1.0  0.5746195352188291  0.9198361683950186  0.3765076552974878  1.0000
  Au  Au12      1.0  0.9120365008309252  0.9203452935815767  0.3755271462678285  1.0000
  Au  Au13      1.0  0.07252347545970451  0.09213485087366728  0.473101987685554  1.0000
  Au  Au14      1.0  0.4123131967613011  0.07726726729840797  0.4762411553377865  1.0000
  Au  Au15      1.0  0.7494445314211466  0.08834028341313345  0.4719629221103076  1.0000
  Au  Au16      1.0  0.2341596807769678  0.5811803897294535  0.47145394291654946  1.0000
  Au  Au17      1.0  0.5842576301201464  0.5795172295411846  0.4709824556770073  1.0000
  Au  Au18      1.0  0.9084247956920666  0.5926104447552808  0.47361426045915367  1.0000
  O   O1        1.0  0.6857474712888885  0.01592424729914192  0.6710734055704595  1.0000
  H   H1        1.0  0.7300979196255233  0.8647848840106319  0.6539869426019417  1.0000
  H   H2        1.0  0.7312984711644832  0.16200912491984107  0.6531366602885629  1.0000
  O   O2        1.0  0.8187620236020393  0.5508832935713531  0.6222116451338864  1.0000
  H   H3        1.0  0.8154996228218351  0.5594295365479268  0.5830968639404617  1.0000
  H   H4        1.0  0.9239453746224273  0.5605221467023908  0.630364252163266  1.0000
  O   O3        1.0  0.36165234785335393  0.05928824783722524  0.65522130390351  1.0000
  H   H5        1.0  0.3264814548577421  0.8963012967834857  0.6404792495680639  1.0000
  H   H6        1.0  0.46962369191641395  0.040124976535522786  0.656827897097267  1.0000
  O   O4        1.0  0.23173758413345827  0.5511616536115579  0.6204975372407446  1.0000
  H   H7        1.0  0.28051747498819807  0.3865216928944233  0.6280975104739414  1.0000
  H   H8        1.0  0.22068608873254625  0.5524930761554798  0.5816128983819362  1.0000
  H   H9        1.0  0.41583167205083554  0.07916824635586306  0.5406545200456934  1.0000
data_image5
_chemical_formula_structural       Au18OH2OH2OH2OH3
_chemical_formula_sum              "Au18 O4 H9"
_cell_length_a       9.058037866999674
_cell_length_b       5.229660600842084
_cell_length_c       25.0
_cell_angle_alpha    90.0
_cell_angle_beta     90.0
_cell_angle_gamma    90.0

_space_group_name_H-M_alt    "P 1"
_space_group_IT_number       1

loop_
  _space_group_symop_operation_xyz
  'x, y, z'

loop_
  _atom_site_type_symbol
  _atom_site_label
  _atom_site_symmetry_multiplicity
  _atom_site_fract_x
  _atom_site_fract_y
  _atom_site_fract_z
  _atom_site_occupancy
  Au  Au1       1.0  0.24101854534511719  0.25000000000000006  0.28  1.0000
  Au  Au2       1.0  0.5743518786784505  0.25000000000000006  0.28  1.0000
  Au  Au3       1.0  0.9076852120117839  0.25000000000000006  0.28  1.0000
  Au  Au4       1.0  0.07435187867845046  0.7500000000000001  0.28  1.0000
  Au  Au5       1.0  0.40768521201178376  0.7500000000000001  0.28  1.0000
  Au  Au6       1.0  0.7410185453451171  0.7500000000000001  0.28  1.0000
  Au  Au7       1.0  0.06957267921769447  0.4208998348030666  0.37501496812453433  1.0000
  Au  Au8       1.0  0.40738799254140284  0.41005499202267137  0.37729119933945904  1.0000
  Au  Au9       1.0  0.7389163954358929  0.40933617188670024  0.3774679654069473  1.0000
  Au  Au10      1.0  0.24406656544173144  0.9215052171892312  0.3765049658436954  1.0000
  Au  Au11      1.0  0.5731615890202861  0.9105197574646368  0.3769795853045221  1.0000
  Au  Au12      1.0  0.9005576108165689  0.920180500601712  0.3763906236372472  1.0000
  Au  Au13      1.0  0.065173402889376  0.08111385002944324  0.4713479439173424  1.0000
  Au  Au14      1.0  0.39219481613089063  0.07670852923809157  0.4773882999194759  1.0000
  Au  Au15      1.0  0.736320587909291  0.09136823581976775  0.4806858278211785  1.0000
  Au  Au16      1.0  0.23228477807097175  0.5783130032489169  0.47103742412124605  1.0000
  Au  Au17      1.0  0.5740784849478441  0.590610878823751  0.47262769048239717  1.0000
  Au  Au18      1.0  0.904812634331  0.590476073158971  0.4736648425947266  1.0000
  O   O1        1.0  0.6930380824375315  0.02084068927959364  0.6733789104137432  1.0000
  H   H1        1.0  0.7417507876567373  0.8745127525601042  0.6560654856349346  1.0000
  H   H2        1.0  0.7428378344878513  0.17072851709424045  0.6586074100317876  1.0000
  O   O2        1.0  0.8344124644674195  0.5581911669618034  0.6247885345421064  1.0000
  H   H3        1.0  0.8287220143262687  0.5597815446907206  0.5857177019077793  1.0000
  H   H4        1.0  0.9402620539329183  0.5577631964977788  0.6320629269537823  1.0000
  O   O3        1.0  0.36748620580983404  0.05787588614199025  0.6579937044154643  1.0000
  H   H5        1.0  0.3328425089131151  0.8938662829822278  0.6436858028336967  1.0000
  H   H6        1.0  0.47561787091005614  0.04227252947348266  0.6587112640395525  1.0000
  O   O4        1.0  0.23476882991763354  0.5437642778168174  0.6221860395610166  1.0000
  H   H7        1.0  0.2822264103537173  0.37926205052036693  0.6310515620678563  1.0000
  H   H8        1.0  0.2308285843078235  0.5447206753420548  0.5831194103801799  1.0000
  H   H9        1.0  0.5440743450895851  0.09831199578402336  0.5185320365880299  1.0000
data_image6
_chemical_formula_structural       Au18OH2OH2OH2OH3
_chemical_formula_sum              "Au18 O4 H9"
_cell_length_a       9.058037866999674
_cell_length_b       5.229660600842084
_cell_length_c       25.0
_cell_angle_alpha    90.0
_cell_angle_beta     90.0
_cell_angle_gamma    90.0

_space_group_name_H-M_alt    "P 1"
_space_group_IT_number       1

loop_
  _space_group_symop_operation_xyz
  'x, y, z'

loop_
  _atom_site_type_symbol
  _atom_site_label
  _atom_site_symmetry_multiplicity
  _atom_site_fract_x
  _atom_site_fract_y
  _atom_site_fract_z
  _atom_site_occupancy
  Au  Au1       1.0  0.24101854534511719  0.25000000000000006  0.28  1.0000
  Au  Au2       1.0  0.5743518786784505  0.25000000000000006  0.28  1.0000
  Au  Au3       1.0  0.9076852120117839  0.25000000000000006  0.28  1.0000
  Au  Au4       1.0  0.07435187867845046  0.7500000000000001  0.28  1.0000
  Au  Au5       1.0  0.40768521201178376  0.7500000000000001  0.28  1.0000
  Au  Au6       1.0  0.7410185453451171  0.7500000000000001  0.28  1.0000
  Au  Au7       1.0  0.07554460603254536  0.4203592662450659  0.3758285353327691  1.0000
  Au  Au8       1.0  0.40759064987507654  0.4103106668036174  0.37719842784407936  1.0000
  Au  Au9       1.0  0.7396557908666733  0.40942235323104986  0.37711957190737627  1.0000
  Au  Au10      1.0  0.24424945169737092  0.9202613981583521  0.3763191668076377  1.0000
  Au  Au11      1.0  0.5733480329553771  0.9081128680797461  0.3776581920566004  1.0000
  Au  Au12      1.0  0.9035772235924954  0.9197364105832309  0.37639211927804916  1.0000
  Au  Au13      1.0  0.07287463406774364  0.09190299184417107  0.47293581579114063  1.0000
  Au  Au14      1.0  0.3985016294659223  0.07852744830055604  0.4775462462111942  1.0000
  Au  Au15      1.0  0.7478264364970448  0.07845441301528082  0.47760295938821445  1.0000
  Au  Au16      1.0  0.23768102387468099  0.592258288693834  0.47321983371803233  1.0000
  Au  Au17      1.0  0.5728048069117851  0.5915741629746997  0.4752805394697316  1.0000
  Au  Au18      1.0  0.9086430328739031  0.5917316242159307  0.4729219071653581  1.0000
  O   O1        1.0  0.7415161808184444  0.11923789205007969  0.6450386907917398  1.0000
  H   H1        1.0  0.7948791044725588  0.9596310503873412  0.6535665790043836  1.0000
  H   H2        1.0  0.7410492744041777  0.12254358778667129  0.6061094500689721  1.0000
  O   O2        1.0  0.8986182938287285  0.6405064061653616  0.6702451256320135  1.0000
  H   H3        1.0  0.8538209411451637  0.4747248221651035  0.6618128113354684  1.0000
  H   H4        1.0  0.0018491050676729959  0.6230741428938615  0.6591499435632919  1.0000
  O   O3        1.0  0.38864312379945576  0.12034538549663697  0.6684822777691817  1.0000
  H   H5        1.0  0.3496580388452011  0.9518314702364047  0.6586827067521079  1.0000
  H   H6        1.0  0.49426049875018324  0.10944080202170768  0.6607025099854462  1.0000
  O   O4        1.0  0.23594421434177032  0.6045573429750537  0.6372691310085792  1.0000
  H   H7        1.0  0.28517604699496324  0.4415905841492186  0.6461311098912436  1.0000
  H   H8        1.0  0.23514967285732016  0.6073064584669411  0.5982973667517916  1.0000
  H   H9        1.0  0.5740926280567142  0.24292539629511864  0.5021460855237069  1.0000
