data_image0
_chemical_formula_structural       Au27OH2OH2OH2OH2OH2OH2
_chemical_formula_sum              "Au27 O6 H12"
_cell_length_a       9.058037866999673
_cell_length_b       9.058037866999673
_cell_length_c       27.0
_cell_angle_alpha    90.0
_cell_angle_beta     90.0
_cell_angle_gamma    59.99999999999999

_space_group_name_H-M_alt    "P 1"
_space_group_IT_number       1

loop_
  _space_group_symop_operation_xyz
  'x, y, z'

loop_
  _atom_site_type_symbol
  _atom_site_label
  _atom_site_symmetry_multiplicity
  _atom_site_fract_x
  _atom_site_fract_y
  _atom_site_fract_z
  _atom_site_occupancy
  Au  Au1       1.0  0.1111111111111111  0.11111111111111109  0.25925925925925924  1.0000
  Au  Au2       1.0  0.4444444444444444  0.11111111111111109  0.25925925925925924  1.0000
  Au  Au3       1.0  0.7777777777777778  0.11111111111111109  0.25925925925925924  1.0000
  Au  Au4       1.0  0.11111111111111116  0.44444444444444436  0.25925925925925924  1.0000
  Au  Au5       1.0  0.4444444444444444  0.44444444444444436  0.25925925925925924  1.0000
  Au  Au6       1.0  0.7777777777777779  0.44444444444444436  0.25925925925925924  1.0000
  Au  Au7       1.0  0.1111111111111111  0.7777777777777778  0.25925925925925924  1.0000
  Au  Au8       1.0  0.4444444444444444  0.7777777777777778  0.25925925925925924  1.0000
  Au  Au9       1.0  0.7777777777777779  0.7777777777777778  0.25925925925925924  1.0000
  Au  Au10      1.0  0.8903069983987746  0.2197924768103216  0.34915872168447526  1.0000
  Au  Au11      1.0  0.22301746461112584  0.2243988620148538  0.3486647694253293  1.0000
  Au  Au12      1.0  0.5522313604797466  0.22427571953778647  0.348595367252174  1.0000
  Au  Au13      1.0  0.8866160599656966  0.5568795031139647  0.34826324255786195  1.0000
  Au  Au14      1.0  0.22333423999305546  0.5536378070919  0.34898422712295873  1.0000
  Au  Au15      1.0  0.5564115223238926  0.5564279394269452  0.3489807836493885  1.0000
  Au  Au16      1.0  0.8897729990217881  0.890612033349678  0.34926942779946113  1.0000
  Au  Au17      1.0  0.21950646845290442  0.8903358939696833  0.34932216005045164  1.0000
  Au  Au18      1.0  0.5565123498678659  0.8869697670109497  0.34867325575946573  1.0000
  Au  Au19      1.0  0.999868422039267  0.00040517833013333285  0.43992626430652904  1.0000
  Au  Au20      1.0  0.33127697985351745  0.005002894678515207  0.43791111232819  1.0000
  Au  Au21      1.0  0.6621031353796533  0.005146091880694603  0.43832198083282936  1.0000
  Au  Au22      1.0  0.9948725383927671  0.3385890759056331  0.4383386916568595  1.0000
  Au  Au23      1.0  0.3319839278823503  0.3353965314632121  0.43895956856067153  1.0000
  Au  Au24      1.0  0.6663739990987054  0.332937577638119  0.4383684128912436  1.0000
  Au  Au25      1.0  0.9970756951359533  0.668673018447184  0.43795403950845585  1.0000
  Au  Au26      1.0  0.3357191263727068  0.6683228949117426  0.4386120739362447  1.0000
  Au  Au27      1.0  0.6656841307012528  0.667904629164365  0.4388037657773318  1.0000
  O   O1        1.0  0.7000052428813948  0.07530110985906366  0.5950416359233011  1.0000
  H   H1        1.0  0.8051674249416966  0.9684954732989673  0.6033539080092001  1.0000
  H   H2        1.0  0.7018356371723817  0.07920980359231286  0.5590426254574411  1.0000
  O   O2        1.0  0.6905089574974169  0.4290039544569419  0.6220029492434548  1.0000
  H   H3        1.0  0.6939154659068175  0.3229101089953425  0.6128274525677443  1.0000
  H   H4        1.0  0.7964231345058732  0.4176786511814077  0.6088945794869008  1.0000
  O   O3        1.0  0.349730147925005  0.08085843348397241  0.6213926459220545  1.0000
  H   H5        1.0  0.3627440256876871  0.9713693733821215  0.6107925976561799  1.0000
  H   H6        1.0  0.4553380528915425  0.07647504140521057  0.6111019682783131  1.0000
  O   O4        1.0  0.03668555444147793  0.4041646638559291  0.5886574271640722  1.0000
  H   H7        1.0  0.13865552102332807  0.2970924453154973  0.598829660138187  1.0000
  H   H8        1.0  0.03897270300236085  0.3999579078415296  0.552604465732015  1.0000
  O   O5        1.0  0.37323031084159575  0.744446506466146  0.5938842518251746  1.0000
  H   H9        1.0  0.47904794072366225  0.6392817017208254  0.6030743446626383  1.0000
  H   H10       1.0  0.372221651816557  0.7401061285961111  0.5578842134740463  1.0000
  O   O6        1.0  0.01973395461212851  0.7494994336099461  0.6214701522934825  1.0000
  H   H11       1.0  0.026688452132627813  0.6443343614601441  0.6093794169130305  1.0000
  H   H12       1.0  0.12677028919493888  0.7415176918430281  0.6110489105909466  1.0000
