45
Lattice="9.058037866999673 0.0 0.0 4.529018933499836 7.844490901263127 0.0 0.0 0.0 27.0" Properties=species:S:1:pos:R:3:tags:I:1:initial_magmoms:R:1:forces:R:3 energy=-154.81358127882987 dipole="-26.974665488634095 -5.379591441763074 1.4131626177599423" pbc="T T F"
Au       1.50967298       0.87161010       7.00000000        3       0.00000000      -0.04472687      -0.03514302       0.03400408
Au       4.52901893       0.87161010       7.00000000        3       0.00000000      -0.00264678       0.03776329       0.00661133
Au       7.54836489       0.87161010       7.00000000        3       0.00000000       0.05038613      -0.02773573       0.03478075
Au       3.01934596       3.48644040       7.00000000        3       0.00000000       0.05534658      -0.01958981       0.00526421
Au       6.03869191       3.48644040       7.00000000        3       0.00000000      -0.03840924      -0.01397050       0.01589836
Au       9.05803787       3.48644040       7.00000000        3       0.00000000      -0.01559703       0.04570496       0.04359982
Au       4.52901893       6.10127070       7.00000000        3       0.00000000       0.00228894       0.04848734       0.03907129
Au       7.54836489       6.10127070       7.00000000        3       0.00000000       0.04214833      -0.02694497       0.05656006
Au      10.56771084       6.10127070       7.00000000        3       0.00000000      -0.04166352      -0.01548801       0.03754088
Au       0.00184093       1.72416008       9.42728549        2       0.00000000      -0.00678971      -0.00351992      -0.00192892
Au       3.03640733       1.76029483       9.41394877        2       0.00000000       0.00765904      -0.01874370       0.00720132
Au       6.01788155       1.75932884       9.41207492        2       0.00000000      -0.00390202      -0.01163926      -0.00127340
Au       1.49508179       4.36843620       9.40310755        2       0.00000000      -0.00167086       0.00472000       0.00171434
Au       4.53040611       4.34300674       9.42257413        2       0.00000000       0.00036677      -0.00563573      -0.01780573
Au       7.56006931       4.36489391       9.42248116        2       0.00000000       0.00556021       0.00113007      -0.01907276
Au       3.03515841       6.98639799       9.43027455        2       0.00000000      -0.00334181      -0.00087356       0.00010667
Au       6.02064602       6.98423182       9.43169832        2       0.00000000       0.00454916       0.00146603      -0.00636889
Au       9.05801281       6.95782627       9.41417791        2       0.00000000      -0.00023233       0.00734222       0.00942959
Au       0.00064322       0.00317842      11.87800914        1       0.00000000      -0.00398688      -0.02498346      -0.00828418
Au       3.02337763       0.03924516      11.82360003        1       0.00000000       0.00568929       0.00626471      -0.00097817
Au       6.02066202       0.04036847      11.83469348        1       0.00000000      -0.00169948      -0.00007838      -0.00731624
Au       1.48703159       2.65605893      11.83514467        1       0.00000000       0.00931037       0.00518074      -0.00851926
Au       4.52614023       2.63101504      11.85190835        1       0.00000000      -0.00589528      -0.00901284      -0.00304620
Au       7.54392151       2.61172580      11.83594715        1       0.00000000      -0.01758517       0.01289104      -0.00669600
Au       3.00194430       5.24539941      11.82475907        1       0.00000000      -0.00028109       0.00174326      -0.00468712
Au       6.06780360       5.24265287      11.84252600        1       0.00000000       0.00142453       0.00254389      -0.02956281
Au       9.05474477       5.23937179      11.84770168        1       0.00000000       0.00938856       0.00155374      -0.00339191
O        6.68171415       0.59069887      16.06612417        0       0.00000000      -0.00383083      -0.01551898       0.01189066
H        7.15055243      -0.24713697      16.29055552        0       0.00000000      -0.00349282      -0.00293413       0.01641219
H        6.71599648       0.62136058      15.09415089        0       0.00000000       0.00241049       0.00477281      -0.00747856
O        8.19762332       3.36531762      16.79407963        0       0.00000000       0.01190368       0.02052006      -0.01370912
H        7.74797856       2.53306541      16.54634122        0       0.00000000       0.01659317       0.00238294       0.01444861
H        9.10570543       3.27647638      16.44015365        0       0.00000000       0.01382363      -0.01095917       0.00943646
O        3.53407830       0.63429325      16.77760144        0       0.00000000      -0.00639092       0.01043503      -0.01810422
H        3.15608047      -0.22459269      16.49140014        0       0.00000000       0.00069867      -0.00309136       0.00666713
H        4.47082624       0.59990777      16.49975314        0       0.00000000       0.00418445      -0.00141714       0.01384437
O        2.16276856       3.17046603      15.89375053        0       0.00000000       0.00203104       0.01194576       0.02485595
H        2.60148427       2.33053898      16.16840082        0       0.00000000      -0.00321150       0.00936172      -0.02249020
H        2.16443316       3.13746617      14.92032057        0       0.00000000       0.01742848      -0.02622188       0.01171079
O        6.75234661       5.83980385      16.03487480        0       0.00000000       0.01641312      -0.02081201      -0.00605395
H        7.23455332       5.01483949      16.28300731        0       0.00000000       0.01430120      -0.00779961       0.03025102
H        6.72355249       5.80575579      15.06287376        0       0.00000000       0.00129636       0.01171490      -0.02641810
O        3.57324803       5.87944149      16.77969411        0       0.00000000       0.00494928      -0.00150467      -0.01235607
H        3.15994753       5.05447504      16.45324426        0       0.00000000      -0.00794463      -0.00811921       0.01221617
H        4.50663775       5.81682879      16.49832059        0       0.00000000       0.01523187       0.01187127       0.00846135
