data_image0
_chemical_formula_structural       Au18OH2OH2OH2OH3Au18OH2OH2OH2OH2
_chemical_formula_sum              "Au36 O8 H17"
_cell_length_a       9.058037866999674
_cell_length_b       10.459321201684167
_cell_length_c       25.0
_cell_angle_alpha    90.0
_cell_angle_beta     90.0
_cell_angle_gamma    90.0

_space_group_name_H-M_alt    "P 1"
_space_group_IT_number       1

loop_
  _space_group_symop_operation_xyz
  'x, y, z'

loop_
  _atom_site_type_symbol
  _atom_site_label
  _atom_site_symmetry_multiplicity
  _atom_site_fract_x
  _atom_site_fract_y
  _atom_site_fract_z
  _atom_site_occupancy
  Au  Au1       1.0  0.24101854534511719  0.625  0.28  1.0000
  Au  Au2       1.0  0.5743518786784505  0.625  0.28  1.0000
  Au  Au3       1.0  0.9076852120117839  0.625  0.28  1.0000
  Au  Au4       1.0  0.07435187867845046  0.8750000000000001  0.28  1.0000
  Au  Au5       1.0  0.40768521201178376  0.8750000000000001  0.28  1.0000
  Au  Au6       1.0  0.7410185453451171  0.8750000000000001  0.28  1.0000
  Au  Au7       1.0  0.0730614869471312  0.7063620142892241  0.37762688848382747  1.0000
  Au  Au8       1.0  0.4064543582555484  0.7066159891115825  0.37751329047605164  1.0000
  Au  Au9       1.0  0.7397527122414517  0.7064738234750081  0.3775456443946233  1.0000
  Au  Au10      1.0  0.2396304693768907  0.9562507906006878  0.3776328293820889  1.0000
  Au  Au11      1.0  0.5731389775602062  0.956272667169534  0.3776639696471829  1.0000
  Au  Au12      1.0  0.9064561406684436  0.956233314687414  0.3776611634223644  1.0000
  Au  Au13      1.0  0.07293012557101727  0.5444234472517804  0.47422059174007297  1.0000
  Au  Au14      1.0  0.40628613073588954  0.5442909277502261  0.4740471844514472  1.0000
  Au  Au15      1.0  0.7396209294380327  0.544557510807059  0.47431564315661584  1.0000
  Au  Au16      1.0  0.23957108531255417  0.7943835471894916  0.47448679567815377  1.0000
  Au  Au17      1.0  0.57311162895264  0.7942048478604895  0.4745274910006101  1.0000
  Au  Au18      1.0  0.9060739463235518  0.7941394739873365  0.4745944524742267  1.0000
  O   O1        1.0  0.651941835224473  0.5134835641874373  0.6592065094433122  1.0000
  H   H1        1.0  0.7221939094228995  0.4356114757527492  0.6602482980956766  1.0000
  H   H2        1.0  0.7022086860993298  0.5911130966339235  0.6424176892651117  1.0000
  O   O2        1.0  0.7646686511837212  0.7234624811221503  0.6188758015647643  1.0000
  H   H3        1.0  0.7760178434464395  0.7244429506675782  0.5799295990141221  1.0000
  H   H4        1.0  0.8636280695431524  0.7398718608975319  0.6326915095984496  1.0000
  O   O3        1.0  0.4059918525705798  0.48739143397586976  0.6126323397194415  1.0000
  H   H5        1.0  0.34778917693722117  0.4073704300593958  0.6191961791590527  1.0000
  H   H6        1.0  0.5520037946013977  0.4947658639567439  0.639036333626297  1.0000
  O   O4        1.0  0.21433700619371762  0.8635988297482246  0.6269226085326379  1.0000
  H   H7        1.0  0.2452317780519543  0.7808164109862809  0.6409190238492183  1.0000
  H   H8        1.0  0.22091913746514213  0.8535665382412374  0.588164954862891  1.0000
  H   H9        1.0  0.4135314339334086  0.4941374190191924  0.5735499614983673  1.0000
  Au  Au19      1.0  0.24101854534511719  0.12500000000000003  0.28  1.0000
  Au  Au20      1.0  0.5743518786784505  0.12500000000000003  0.28  1.0000
  Au  Au21      1.0  0.9076852120117839  0.12500000000000003  0.28  1.0000
  Au  Au22      1.0  0.07435187867845046  0.37500000000000006  0.28  1.0000
  Au  Au23      1.0  0.40768521201178376  0.37500000000000006  0.28  1.0000
  Au  Au24      1.0  0.7410185453451171  0.37500000000000006  0.28  1.0000
  Au  Au25      1.0  0.07304594192572772  0.20612889749544017  0.37764945814037093  1.0000
  Au  Au26      1.0  0.40623481196547845  0.20622798672364873  0.3775851836313424  1.0000
  Au  Au27      1.0  0.7398325448850361  0.20607788229276475  0.3776567075593549  1.0000
  Au  Au28      1.0  0.23970431518999005  0.4564402484370433  0.3774782604645778  1.0000
  Au  Au29      1.0  0.57317998966365  0.45626027237306127  0.3775070292240206  1.0000
  Au  Au30      1.0  0.9063090989476102  0.45621783760374696  0.37768093125754976  1.0000
  Au  Au31      1.0  0.07306876894867642  0.044362931631596984  0.4745150987937945  1.0000
  Au  Au32      1.0  0.40641490830032617  0.044189451334398694  0.4742771306452388  1.0000
  Au  Au33      1.0  0.739567026976766  0.044293216391482544  0.4745962842151434  1.0000
  Au  Au34      1.0  0.2394306103076608  0.29424742210874016  0.47427719138383523  1.0000
  Au  Au35      1.0  0.5730694715354147  0.2940951081228109  0.4740749196245856  1.0000
  Au  Au36      1.0  0.9062888413076655  0.29418398662443523  0.47440053796323817  1.0000
  O   O5        1.0  0.7083455789099948  0.0835415307359377  0.6371514700092894  1.0000
  H   H10       1.0  0.7520591596185795  0.01393352546444602  0.6577831421310123  1.0000
  H   H11       1.0  0.7294503771292216  0.06111375202422507  0.6000526702883038  1.0000
  O   O6        1.0  0.8274761684164276  0.3210590066623307  0.6704573177697243  1.0000
  H   H12       1.0  0.7929215803984141  0.2373013451764953  0.6569045823646775  1.0000
  H   H13       1.0  0.9276000213704144  0.33116725026134347  0.6568968490618515  1.0000
  O   O7        1.0  0.38938232274393686  0.07180023331064064  0.666643323721984  1.0000
  H   H14       1.0  0.34118144867250483  0.994921923662334  0.6519146554960059  1.0000
  H   H15       1.0  0.4913277662809529  0.06948755904417375  0.6534171818473248  1.0000
  O   O8        1.0  0.22915137061783356  0.2768316963250686  0.626732229430193  1.0000
  H   H16       1.0  0.28788357327761654  0.2024145643367002  0.6398806911300089  1.0000
  H   H17       1.0  0.2023324760531303  0.2539798346325448  0.5901706035885531  1.0000
