data_image0
_chemical_formula_structural       H2
_chemical_formula_sum              "H2"
_cell_length_a       14.0
_cell_length_b       14.0
_cell_length_c       14.737166
_cell_angle_alpha    90.0
_cell_angle_beta     90.0
_cell_angle_gamma    90.0

_space_group_name_H-M_alt    "P 1"
_space_group_IT_number       1

loop_
  _space_group_symop_operation_xyz
  'x, y, z'

loop_
  _atom_site_type_symbol
  _atom_site_label
  _atom_site_symmetry_multiplicity
  _atom_site_fract_x
  _atom_site_fract_y
  _atom_site_fract_z
  _atom_site_occupancy
  H   H1        1.0  0.49999999999999967  0.5  0.5253772408077334  1.0000
  H   H2        1.0  0.49999999999999967  0.5000000000000001  0.4746227591922689  1.0000
